output/2_TAP2_1/Cargas_MT_DU07_2_TAP2_1.dss
New "Load.MT_8444_M1" bus1="84441.1.2.3.4" phases=3 conn=delta model=2 kv=13.8 kw = 4355.248373669686 pf=0.92 status=variable vmaxpu=1.5 vminpu=0.93 daily="1_DU" 
New "Load.MT_8444_M2" bus1="84441.1.2.3.4" phases=3 conn=delta model=3 kv=13.8 kw = 4355.248373669686 pf=0.92 status=variable vmaxpu=1.5 vminpu=0.93 daily="1_DU"
 
New "Load.MT_8266_M1" bus1="82661.1.2.3.4" phases=3 conn=delta model=2 kv=13.8 kw = 7550.092763269304 pf=0.92 status=variable vmaxpu=1.5 vminpu=0.93 daily="5_DU" 
New "Load.MT_8266_M2" bus1="82661.1.2.3.4" phases=3 conn=delta model=3 kv=13.8 kw = 7550.092763269304 pf=0.92 status=variable vmaxpu=1.5 vminpu=0.93 daily="5_DU"
 
New "Load.MT_8092_M1" bus1="80921.1.2.3.4" phases=3 conn=delta model=2 kv=13.8 kw = 1651.875880450136 pf=0.92 status=variable vmaxpu=1.5 vminpu=0.93 daily="6_DU" 
New "Load.MT_8092_M2" bus1="80921.1.2.3.4" phases=3 conn=delta model=3 kv=13.8 kw = 1651.875880450136 pf=0.92 status=variable vmaxpu=1.5 vminpu=0.93 daily="6_DU"
 
New "Load.MT_7769_M1" bus1="77691.1.2.3.4" phases=3 conn=delta model=2 kv=13.8 kw = 12785.764868416007 pf=0.92 status=variable vmaxpu=1.5 vminpu=0.93 daily="1_DU" 
New "Load.MT_7769_M2" bus1="77691.1.2.3.4" phases=3 conn=delta model=3 kv=13.8 kw = 12785.764868416007 pf=0.92 status=variable vmaxpu=1.5 vminpu=0.93 daily="1_DU"
 
New "Load.MT_7632_M1" bus1="76321.1.2.3.4" phases=3 conn=delta model=2 kv=13.8 kw = 24155.06221675769 pf=0.92 status=variable vmaxpu=1.5 vminpu=0.93 daily="6_DU" 
New "Load.MT_7632_M2" bus1="76321.1.2.3.4" phases=3 conn=delta model=3 kv=13.8 kw = 24155.06221675769 pf=0.92 status=variable vmaxpu=1.5 vminpu=0.93 daily="6_DU"
 
New "Load.MT_7595_M1" bus1="75951.1.2.3.4" phases=3 conn=delta model=2 kv=13.8 kw = 7539.860416941437 pf=0.92 status=variable vmaxpu=1.5 vminpu=0.93 daily="3_DU" 
New "Load.MT_7595_M2" bus1="75951.1.2.3.4" phases=3 conn=delta model=3 kv=13.8 kw = 7539.860416941437 pf=0.92 status=variable vmaxpu=1.5 vminpu=0.93 daily="3_DU"
 
New "Load.MT_7322_M1" bus1="73221.1.2.3.4" phases=3 conn=delta model=2 kv=13.8 kw = 73520.74040313826 pf=0.92 status=variable vmaxpu=1.5 vminpu=0.93 daily="1_DU" 
New "Load.MT_7322_M2" bus1="73221.1.2.3.4" phases=3 conn=delta model=3 kv=13.8 kw = 73520.74040313826 pf=0.92 status=variable vmaxpu=1.5 vminpu=0.93 daily="1_DU"
 
New "Load.MT_6803_M1" bus1="68031.1.2.3.4" phases=3 conn=delta model=2 kv=13.8 kw = 166847.4912674887 pf=0.92 status=variable vmaxpu=1.5 vminpu=0.93 daily="1_DU" 
New "Load.MT_6803_M2" bus1="68031.1.2.3.4" phases=3 conn=delta model=3 kv=13.8 kw = 166847.4912674887 pf=0.92 status=variable vmaxpu=1.5 vminpu=0.93 daily="1_DU"
 
New "Load.MT_7250_M1" bus1="72501.1.2.3.4" phases=3 conn=delta model=2 kv=13.8 kw = 528.8515882313189 pf=0.92 status=variable vmaxpu=1.5 vminpu=0.93 daily="1_DU" 
New "Load.MT_7250_M2" bus1="72501.1.2.3.4" phases=3 conn=delta model=3 kv=13.8 kw = 528.8515882313189 pf=0.92 status=variable vmaxpu=1.5 vminpu=0.93 daily="1_DU"
 
New "Load.MT_126_M1" bus1="1261.1.2.3.4" phases=3 conn=delta model=2 kv=13.8 kw = 2748289.0528956624 pf=0.92 status=variable vmaxpu=1.5 vminpu=0.93 daily="3_DU" 
New "Load.MT_126_M2" bus1="1261.1.2.3.4" phases=3 conn=delta model=3 kv=13.8 kw = 2748289.0528956624 pf=0.92 status=variable vmaxpu=1.5 vminpu=0.93 daily="3_DU"
 
New "Load.MT_1236_M1" bus1="12361.1.2.3.4" phases=3 conn=delta model=2 kv=13.8 kw = 353788.2792032002 pf=0.92 status=variable vmaxpu=1.5 vminpu=0.93 daily="3_DU" 
New "Load.MT_1236_M2" bus1="12361.1.2.3.4" phases=3 conn=delta model=3 kv=13.8 kw = 353788.2792032002 pf=0.92 status=variable vmaxpu=1.5 vminpu=0.93 daily="3_DU"
 
New "Load.MT_1705_M1" bus1="17051.1.2.3.4" phases=3 conn=delta model=2 kv=13.8 kw = 12555.359762357422 pf=0.92 status=variable vmaxpu=1.5 vminpu=0.93 daily="7_DU" 
New "Load.MT_1705_M2" bus1="17051.1.2.3.4" phases=3 conn=delta model=3 kv=13.8 kw = 12555.359762357422 pf=0.92 status=variable vmaxpu=1.5 vminpu=0.93 daily="7_DU"
 
New "Load.MT_461_M1" bus1="4611.1.2.3.4" phases=3 conn=delta model=2 kv=13.8 kw = 16192.191274964796 pf=0.92 status=variable vmaxpu=1.5 vminpu=0.93 daily="1_DU" 
New "Load.MT_461_M2" bus1="4611.1.2.3.4" phases=3 conn=delta model=3 kv=13.8 kw = 16192.191274964796 pf=0.92 status=variable vmaxpu=1.5 vminpu=0.93 daily="1_DU"
 
New "Load.MT_427_M1" bus1="4271.1.2.3.4" phases=3 conn=delta model=2 kv=13.8 kw = 49442.438680135856 pf=0.92 status=variable vmaxpu=1.5 vminpu=0.93 daily="1_DU" 
New "Load.MT_427_M2" bus1="4271.1.2.3.4" phases=3 conn=delta model=3 kv=13.8 kw = 49442.438680135856 pf=0.92 status=variable vmaxpu=1.5 vminpu=0.93 daily="1_DU"
 
